-------------------------------------------------------
          Amber 16 SANDER                              2016
          -------------------------------------------------------

  [-O]verwriting output

File Assignments:

 Here is the input file:

Production
 &cntrl
  imin=0,
  ntx=5,
  irest=1,
  nstlim=30000,
  dt=0.002,
  ntf=2,
  ntc=2,
  temp0=300.0,
  ntpr=100,
  ntwx=100,
  cut=8.0,
  ntb=2,
  ntp=1,
  ntt=3,
  gamma_ln=2.0,
  ig=-1,
 /

--------------------------------------------------------------------------------
   1.  RESOURCE   USE:
--------------------------------------------------------------------------------

 getting box info from netcdf restart file
 NATOM  =    1912 NTYPES =       9 NBONH =    1902 MBONA  =       9
 NTHETH =      25 MTHETA =      11 NPHIH =      43 MPHIA  =      24
 NHPARM =       0 NPARM  =       0 NNB   =    2619 NRES   =     633
 NBONA  =       9 NTHETA =      11 NPHIA =      24 NUMBND =      13
 NUMANG =      21 NPTRA  =      20 NATYP =      10 NPHB   =       1
 IFBOX  =       1 NMXRS  =      10 IFCAP =       0 NEXTRA =       0
 NCOPY  =       0

     BOX TYPE: RECTILINEAR
Note: ig = -1. Setting random seed to   969039 based on wallclock time in microseconds.

--------------------------------------------------------------------------------
   2.  CONTROL  DATA  FOR  THE  RUN
--------------------------------------------------------------------------------

ACE

General flags:
     imin    =       0, nmropt  =       0

Nature and format of input:
     ntx     =       5, irest   =       1, ntrx    =       1

Nature and format of output:
     ntxo    =       2, ntpr    =     100, ntrx    =       1, ntwr    =   30000
     iwrap   =       0, ntwx    =     100, ntwv    =       0, ntwe    =       0
     ioutfm  =       1, ntwprt  =       0, idecomp =       0, rbornstat=      0

Potential function:
     ntf     =       2, ntb     =       2, igb     =       0, nsnb    =      25
     ipol    =       0, gbsa    =       0, iesp    =       0
     dielc   =   1.00000, cut     =   8.00000, intdiel =   1.00000

Frozen or restrained atoms:
     ibelly  =       0, ntr     =       0

Molecular dynamics:
     nstlim  =     30000, nscm    =      1000, nrespa  =         1
     t       =   0.00000, dt      =   0.00200, vlimit  =  20.00000

Langevin dynamics temperature regulation:
     ig      =  969039
     temp0   = 300.00000, tempi   =   0.00000, gamma_ln=   2.00000

Pressure regulation:
     ntp     =       1
     pres0   =   1.00000, comp    =  44.60000, taup    =   1.00000

SHAKE:
     ntc     =       2, jfastw  =       0
     tol     =   0.00001

Ewald parameters:
     verbose =       0, ew_type =       0, nbflag  =       1, use_pme =       1
     vdwmeth =       1, eedmeth =       1, netfrc  =       1
     Box X =   31.398   Box Y =   34.100   Box Z =   29.273
     Alpha =   90.000   Beta  =   90.000   Gamma =   90.000
     NFFT1 =   32       NFFT2 =   36       NFFT3 =   30
     Cutoff=    8.000   Tol   =0.100E-04
     Ewald Coefficient =  0.34864
     Interpolation order =    4

--------------------------------------------------------------------------------
   3.  ATOMIC COORDINATES AND VELOCITIES
--------------------------------------------------------------------------------

ACE
 begin time read from input coords =    20.000 ps

 Number of triangulated 3-point waters found:      630

     Sum of charges from parm topology file =  -0.00000000
     Forcing neutrality...

--------------------------------------------------------------------------------
   4.  RESULTS
 NSTEP =      100   TIME(PS) =      20.200  TEMP(K) =   303.60  PRESS =  -431.8
 Etot   =     -4630.6768  EKtot   =      1156.5549  EPtot      =     -5787.2318
 BOND   =         5.8190  ANGLE   =         7.4392  DIHED      =        13.8909
 1-4 NB =         2.4495  1-4 EEL =        46.2727  VDWAALS    =       898.8040
 EELEC  =     -6761.9070  EHBOND  =         0.0000  RESTRAINT  =         0.0000
 EKCMT  =       568.5068  VIRIAL  =       859.1915  VOLUME     =     31178.3273
                                                    Density    =         0.6122
 Ewald error estimate:   0.1219E-03
 ------------------------------------------------------------------------------

      A V E R A G E S   O V E R   30000 S T E P S

 NSTEP =    30000   TIME(PS) =      80.000  TEMP(K) =   300.21  PRESS =  -175.6
 Etot   =     -4820.7000  EKtot   =      1143.6474  EPtot      =     -5964.3474
 BOND   =         3.3311  ANGLE   =         9.2489  DIHED      =        11.6669
 1-4 NB =         3.2044  1-4 EEL =        46.9480  VDWAALS    =       880.8910
 EELEC  =     -6919.6376  EHBOND  =         0.0000  RESTRAINT  =         0.0000
 EKCMT  =       565.8246  VIRIAL  =       660.5945  VOLUME     =     21704.7953
                                                    Density    =         0.8999
 Ewald error estimate:   0.2115E-03
 ------------------------------------------------------------------------------

      R M S  F L U C T U A T I O N S

 NSTEP =    30000   TIME(PS) =      80.000  TEMP(K) =     6.78  PRESS =   412.7
 Etot   =       107.5402  EKtot   =        25.8152  EPtot      =       106.2082
 BOND   =         1.5178  ANGLE   =         2.3885  DIHED      =         1.2508
 1-4 NB =         0.7293  1-4 EEL =         2.0547  VDWAALS    =        34.0165
 EELEC  =       115.0133  EHBOND  =         0.0000  RESTRAINT  =         0.0000
 EKCMT  =        17.8057  VIRIAL  =       198.2234  VOLUME     =      3601.1719
                                                    Density    =         0.1243
 Ewald error estimate:   0.1591E-03
 ------------------------------------------------------------------------------
