-------------------------------------------------------
          Amber 14 SANDER                              2014
          -------------------------------------------------------

  [-O]verwriting output

File Assignments:

 Here is the input file:

# MNDO dynamics
&cntrl
 imin=0,

 nstlim=5000000,
 dt=0.0005,

 ntpr=1000,
 ntwx=1000,
 ntwr=-1000,

 ntb=0,
 cut=50.0,

 temp0=300.0,
 ntt=3,
 gamma_ln=5,

 ifqnt=1,
&end

&qmmm
  qmmask=":1",
  qmcharge=0,
  qm_theory="MNDO",
  qmcut=9.0,
&end

--------------------------------------------------------------------------------
   1.  RESOURCE   USE:
--------------------------------------------------------------------------------

 NATOM  =      27 NTYPES =       8 NBONH =       0 MBONA  =      28
 NTHETH =       0 MTHETA =      44 NPHIH =       0 MPHIA  =      67
 NHPARM =       0 NPARM  =       0 NNB   =     126 NRES   =       1
 NBONA  =      28 NTHETA =      44 NPHIA =      67 NUMBND =      10
 NUMANG =      17 NPTRA  =       7 NATYP =       9 NPHB   =       0
 IFBOX  =       0 NMXRS  =      27 IFCAP =       0 NEXTRA =       0
 NCOPY  =       0

LOADING THE QUANTUM ATOMS AS GROUPS
     Mask :1; matches    27 atoms

--------------------------------------------------------------------------------
   2.  CONTROL  DATA  FOR  THE  RUN
--------------------------------------------------------------------------------

General flags:
     imin    =       0, nmropt  =       0

Nature and format of input:
     ntx     =       1, irest   =       0, ntrx    =       1

Nature and format of output:
     ntxo    =       1, ntpr    =    1000, ntrx    =       1, ntwr    =   -1000
     iwrap   =       0, ntwx    =    1000, ntwv    =       0, ntwe    =       0
     ioutfm  =       0, ntwprt  =       0, idecomp =       0, rbornstat=      0

Potential function:
     ntf     =       1, ntb     =       0, igb     =       0, nsnb    =      25
     ipol    =       0, gbsa    =       0, iesp    =       0
     dielc   =   1.00000, cut     =  50.00000, intdiel =   1.00000

Frozen or restrained atoms:
     ibelly  =       0, ntr     =       0

Molecular dynamics:
     nstlim  =   5000000, nscm    =      1000, nrespa  =         1
     t       =   0.00000, dt      =   0.00050, vlimit  =  20.00000

Langevin dynamics temperature regulation:
     ig      =   71277
     temp0   = 300.00000, tempi   =   0.00000, gamma_ln=   5.00000

QMMM options:
             ifqnt = True       nquant =       27
              qmgb =        0  qmcharge =        0   adjust_q =        2
              spin =        1     qmcut =   9.0000    qmshake =        1
          qmmm_int =        1
     lnk_atomic_no =        1   lnk_dis =   1.0900 lnk_method =        1
          qm_theory =    MNDO verbosity =        0
            qmqmdx = Analytical
      tight_p_conv = False (converge density to 0.05xSqrt[SCFCRT])
           scfconv = 0.100E-07  itrmax =     1000
      printcharges = False      printdipole = False      peptide_corr = False
    qmmmrij_incore = True
  qmqm_erep_incore = True
       pseudo_diag = True pseudo_diag_criteria =   0.0500
      diag_routine =        0
          qm_ewald =        0 qm_pme = False

--------------------------------------------------------------------------------
   3.  ATOMIC COORDINATES AND VELOCITIES
--------------------------------------------------------------------------------

 begin time read from input coords =     0.000 ps

 Number of triangulated 3-point waters found:        0

     Sum of charges from parm topology file =  -0.00000000
     Forcing neutrality...

 ---------------------------------------------------

     eedmeth=4: Setting switch to one everywhere

 ---------------------------------------------------

QMMM: Link Atom Information
QMMM: ------------------------------------------------------------------------
QMMM: nlink =     0
QMMM: ------------------------------------------------------------------------

  QMMM: QM Region Cartesian Coordinates (*=link atom)
  QMMM: QM_NO.   MM_NO.  ATOM         X         Y         Z
  QMMM:     1        1      C        7.9210    0.5360   -1.2990
  QMMM:     2        2      C        7.5180    1.0200   -0.0800
  QMMM:     3        3      C        6.1550    1.0160    0.2840
  QMMM:     4        4      H        5.8360    1.3880    1.2180
  QMMM:     5        5      H        8.1290    1.3940    0.6430
  QMMM:     6        6      H        8.9550    0.6100   -1.5460
  QMMM:     7        7      C        7.0430    0.1080   -2.2750
  QMMM:     8        8      H        7.5380   -0.2250   -3.1860
  QMMM:     9        9      C        5.6220    0.0720   -1.9620
  QMMM:    10       10      H        5.0010   -0.1760   -2.8570
  QMMM:    11       11      C        5.2290    0.5920   -0.7210
  QMMM:    12       12      C        3.7210    0.7980   -0.3630
  QMMM:    13       13      H        3.6230    1.4700    0.5450
  QMMM:    14       14      H        3.4320    1.4060   -1.2770
  QMMM:    15       15      O        3.0440   -0.4270   -0.1840
  QMMM:    16       16      C        1.7100   -0.2140    0.0040
  QMMM:    17       17      C        1.0000    1.0000    0.0000
  QMMM:    18       18      H        1.4340    1.9960    0.0800
  QMMM:    19       19      C       -0.4010    0.9900    0.0000
  QMMM:    20       20      H       -0.9520    1.9160    0.1200
  QMMM:    21       21      C       -1.0420   -0.3200   -0.0320
  QMMM:    22       22      H       -2.1470   -0.4340   -0.0310
  QMMM:    23       23      N       -0.4000   -1.4670    0.1230
  QMMM:    24       24      C        0.9590   -1.4440    0.1300
  QMMM:    25       25      N        1.6830   -2.6180    0.1220
  QMMM:    26       26      H        2.7010   -2.4150    0.1230
  QMMM:    27       27      H        1.1390   -3.4500    0.1430

--------------------------------------------------------------------------------
  3.1 QM CALCULATION INFO
--------------------------------------------------------------------------------

QMMM: SINGLET STATE CALCULATION
QMMM: RHF CALCULATION, NO. OF DOUBLY OCCUPIED LEVELS = 38

--------------------------------------------------------------------------------
   4.  RESULTS
 NSTEP =        0   TIME(PS) =       0.000  TEMP(K) =     0.00  PRESS =     0.0
 Etot   =        59.7781  EKtot   =         0.0000  EPtot      =        59.7781
 BOND   =         0.0000  ANGLE   =         0.0000  DIHED      =         0.0000
 1-4 NB =         0.0000  1-4 EEL =         0.0000  VDWAALS    =         0.0000
 EELEC  =         0.0000  EHBOND  =         0.0000  RESTRAINT  =         0.0000
 MNDOESCF=       59.7781
 ------------------------------------------------------------------------------

      A V E R A G E S   O V E R 5000000 S T E P S

 NSTEP =  5000000   TIME(PS) =    2500.000  TEMP(K) =   300.18  PRESS =     0.0
 Etot   =        62.1905  EKtot   =        24.1592  EPtot      =        38.0313
 BOND   =         0.0000  ANGLE   =         0.0000  DIHED      =         0.0000
 1-4 NB =         0.0000  1-4 EEL =         0.0000  VDWAALS    =         0.0000
 EELEC  =         0.0000  EHBOND  =         0.0000  RESTRAINT  =         0.0000
 MNDOESCF=       38.0313
 ------------------------------------------------------------------------------

      R M S  F L U C T U A T I O N S

 NSTEP =  5000000   TIME(PS) =    2500.000  TEMP(K) =    47.25  PRESS =     0.0
 Etot   =         5.3165  EKtot   =         3.8027  EPtot      =         3.7215
 BOND   =         0.0000  ANGLE   =         0.0000  DIHED      =         0.0000
 1-4 NB =         0.0000  1-4 EEL =         0.0000  VDWAALS    =         0.0000
 EELEC  =         0.0000  EHBOND  =         0.0000  RESTRAINT  =         0.0000
 MNDOESCF=        3.7215
 ------------------------------------------------------------------------------
